<?xml version="1.0" encoding="UTF-8"?>

<!-- generated on 5/27/2018 7:58:57 PM by Netedit Version 0.32.0
<?xml version="1.0" encoding="UTF-8"?>

<configuration xmlns:xsi="http://www.w3.org/2001/XMLSchema-instance" xsi:noNamespaceSchemaLocation="http://sumo.dlr.de/xsd/netconvertConfiguration.xsd">

    <input>
        <sumo-net-file value="vanet.net.xml"/>
    </input>

    <output>
        <output-file value="vanet.net.xml"/>
    </output>

    <processing>
        <no-turnarounds value="true"/>
        <offset.disable-normalization value="true"/>
        <lefthand value="false"/>
        <junctions.corner-detail value="0"/>
        <rectangular-lane-cut value="false"/>
        <walkingareas value="false"/>
    </processing>

    <visualisation>
        <registry-viewport value="true"/>
    </visualisation>

</configuration>
-->

<net version="0.27" xmlns:xsi="http://www.w3.org/2001/XMLSchema-instance" xsi:noNamespaceSchemaLocation="http://sumo.dlr.de/xsd/net_file.xsd">

    <location netOffset="-531288.87,-3948198.56" convBoundary="0.00,0.00,3073.99,2111.69" origBoundary="51.345820,35.677108,51.379748,35.697265" projParameter="+proj=utm +zone=39 +ellps=WGS84 +datum=WGS84 +units=m +no_defs"/>

    <type id="highway.bridleway" priority="1" numLanes="1" speed="2.78" allow="pedestrian" oneway="1" width="2.00"/>
    <type id="highway.bus_guideway" priority="1" numLanes="1" speed="8.33" allow="bus" oneway="1"/>
    <type id="highway.cycleway" priority="1" numLanes="1" speed="5.56" allow="bicycle" oneway="0" width="1.00"/>
    <type id="highway.footway" priority="1" numLanes="1" speed="2.78" allow="pedestrian" oneway="1" width="2.00"/>
    <type id="highway.ford" priority="1" numLanes="1" speed="2.78" allow="army" oneway="0"/>
    <type id="highway.living_street" priority="3" numLanes="1" speed="2.78" disallow="tram rail_urban rail rail_electric ship" oneway="0"/>
    <type id="highway.motorway" priority="13" numLanes="2" speed="44.44" allow="private emergency authority army vip passenger hov taxi bus coach delivery truck trailer motorcycle evehicle custom1 custom2" oneway="1"/>
    <type id="highway.motorway_link" priority="12" numLanes="1" speed="22.22" allow="private emergency authority army vip passenger hov taxi bus coach delivery truck trailer motorcycle evehicle custom1 custom2" oneway="1"/>
    <type id="highway.path" priority="1" numLanes="1" speed="2.78" allow="bicycle pedestrian" oneway="1" width="2.00"/>
    <type id="highway.pedestrian" priority="1" numLanes="1" speed="2.78" allow="pedestrian" oneway="1" width="2.00"/>
    <type id="highway.primary" priority="9" numLanes="2" speed="27.78" disallow="tram rail_urban rail rail_electric ship" oneway="0"/>
    <type id="highway.primary_link" priority="8" numLanes="1" speed="22.22" disallow="tram rail_urban rail rail_electric ship" oneway="0"/>
    <type id="highway.raceway" priority="14" numLanes="2" speed="83.33" allow="vip" oneway="0"/>
    <type id="highway.residential" priority="4" numLanes="1" speed="13.89" disallow="tram rail_urban rail rail_electric ship" oneway="0"/>
    <type id="highway.secondary" priority="7" numLanes="2" speed="27.78" disallow="tram rail_urban rail rail_electric ship" oneway="0"/>
    <type id="highway.secondary_link" priority="6" numLanes="1" speed="22.22" disallow="tram rail_urban rail rail_electric ship" oneway="0"/>
    <type id="highway.service" priority="2" numLanes="1" speed="5.56" allow="delivery bicycle pedestrian" oneway="0"/>
    <type id="highway.services" priority="1" numLanes="1" speed="8.33" disallow="tram rail_urban rail rail_electric ship" oneway="0"/>
    <type id="highway.stairs" priority="1" numLanes="1" speed="1.39" allow="pedestrian" oneway="1" width="2.00"/>
    <type id="highway.step" priority="1" numLanes="1" speed="1.39" allow="pedestrian" oneway="1" width="2.00"/>
    <type id="highway.steps" priority="1" numLanes="1" speed="1.39" allow="pedestrian" oneway="1" width="2.00"/>
    <type id="highway.tertiary" priority="6" numLanes="1" speed="22.22" disallow="tram rail_urban rail rail_electric ship" oneway="0"/>
    <type id="highway.tertiary_link" priority="5" numLanes="1" speed="22.22" disallow="tram rail_urban rail rail_electric ship" oneway="0"/>
    <type id="highway.track" priority="1" numLanes="1" speed="5.56" disallow="tram rail_urban rail rail_electric ship" oneway="0"/>
    <type id="highway.trunk" priority="11" numLanes="2" speed="27.78" disallow="tram rail_urban rail rail_electric bicycle pedestrian ship" oneway="0"/>
    <type id="highway.trunk_link" priority="10" numLanes="1" speed="22.22" disallow="tram rail_urban rail rail_electric bicycle pedestrian ship" oneway="0"/>
    <type id="highway.unclassified" priority="5" numLanes="1" speed="13.89" disallow="tram rail_urban rail rail_electric ship" oneway="0"/>
    <type id="highway.unsurfaced" priority="1" numLanes="1" speed="8.33" disallow="tram rail_urban rail rail_electric ship" oneway="0"/>
    <type id="railway.light_rail" priority="15" numLanes="1" speed="27.78" allow="rail_urban" oneway="1"/>
    <type id="railway.preserved" priority="15" numLanes="1" speed="27.78" allow="rail" oneway="1"/>
    <type id="railway.rail" priority="15" numLanes="1" speed="83.33" allow="rail rail_electric" oneway="1"/>
    <type id="railway.subway" priority="15" numLanes="1" speed="27.78" allow="rail_urban" oneway="1"/>
    <type id="railway.tram" priority="15" numLanes="1" speed="13.89" allow="tram" oneway="1"/>

    <edge id=":1921677262_0" function="internal">
        <lane id=":1921677262_0_0" index="0" disallow="tram rail_urban rail rail_electric ship" speed="13.89" length="0.30" shape="2163.31,1787.68 2163.34,1787.38"/>
        <lane id=":1921677262_0_1" index="1" disallow="tram rail_urban rail rail_electric ship" speed="13.89" length="0.30" shape="2166.60,1788.02 2166.63,1787.72"/>
    </edge>
    <edge id=":1921677263_0" function="internal">
        <lane id=":1921677263_0_0" index="0" speed="13.89" length="5.53" shape="2436.88,1824.86 2435.45,1824.93 2434.33,1825.48 2433.53,1826.49 2433.05,1827.97"/>
    </edge>
    <edge id=":1921677263_1" function="internal">
        <lane id=":1921677263_1_0" index="0" disallow="tram rail_urban rail rail_electric ship" speed="13.89" length="9.73" shape="2436.88,1824.86 2427.19,1823.84"/>
        <lane id=":1921677263_1_1" index="1" disallow="tram rail_urban rail rail_electric ship" speed="13.89" length="9.73" shape="2437.22,1821.58 2427.55,1820.56"/>
    </edge>
    <edge id=":1921677263_3" function="internal">
        <lane id=":1921677263_3_0" index="0" speed="13.89" length="9.96" shape="2434.44,1818.12 2434.16,1821.06 2433.91,1823.07 2433.59,1825.06 2433.05,1827.97"/>
    </edge>
    <edge id=":1921677263_4" function="internal">
        <lane id=":1921677263_4_0" index="0" disallow="tram rail_urban rail rail_electric ship" speed="13.89" length="1.55" shape="2431.16,1817.81 2430.82,1819.15 2430.71,1819.28"/>
    </edge>
    <edge id=":1921677263_6" function="internal">
        <lane id=":1921677263_6_0" index="0" speed="13.89" length="3.64" shape="2430.71,1819.28 2430.11,1820.05 2429.02,1820.52 2427.55,1820.56"/>
    </edge>
    <edge id=":1921677263_5" function="internal">
        <lane id=":1921677263_5_0" index="0" disallow="tram rail_urban rail rail_electric ship" speed="13.89" length="5.09" shape="2429.81,1827.36 2429.86,1825.95 2429.45,1824.89 2428.56,1824.19 2427.19,1823.84"/>
    </edge>
    <edge id=":1921677264_0" function="internal">
        <lane id=":1921677264_0_0" index="0" disallow="tram rail_urban rail rail_electric ship" speed="13.89" length="9.54" shape="2715.98,1853.26 2706.45,1852.35"/>
        <lane id=":1921677264_0_1" index="1" disallow="tram rail_urban rail rail_electric ship" speed="13.89" length="9.54" shape="2716.27,1849.97 2706.79,1849.07"/>
    </edge>
    <edge id=":1921677264_2" function="internal">
        <lane id=":1921677264_2_0" index="0" disallow="tram rail_urban rail rail_electric ship" speed="13.89" length="1.52" shape="2713.47,1846.59 2713.11,1848.06"/>
    </edge>
    <edge id=":1921677264_3" function="internal">
        <lane id=":1921677264_3_0" index="0" disallow="tram rail_urban rail rail_electric ship" speed="13.89" length="1.56" shape="2710.19,1846.26 2709.86,1847.60 2709.76,1847.74"/>
    </edge>
    <edge id=":1921677264_4" function="internal">
        <lane id=":1921677264_4_0" index="0" speed="13.89" length="8.84" shape="2713.11,1848.06 2712.79,1849.35 2711.39,1851.23 2709.28,1852.23 2706.45,1852.35"/>
    </edge>
    <edge id=":1921677264_5" function="internal">
        <lane id=":1921677264_5_0" index="0" speed="13.89" length="3.47" shape="2709.76,1847.74 2709.18,1848.52 2708.16,1849.01 2706.79,1849.07"/>
    </edge>
    <edge id=":1946581797_0" function="internal">
        <lane id=":1946581797_0_0" index="0" disallow="tram rail_urban rail rail_electric ship" speed="13.89" length="0.10" shape="2084.79,429.45 2084.79,429.45"/>
        <lane id=":1946581797_0_1" index="1" disallow="tram rail_urban rail rail_electric ship" speed="13.89" length="0.10" shape="2084.41,432.73 2084.41,432.73"/>
    </edge>
    <edge id=":1946581800_0" function="internal">
        <lane id=":1946581800_0_0" index="0" disallow="tram rail_urban rail rail_electric ship" speed="13.89" length="9.50" shape="2295.33,450.93 2304.79,451.82"/>
        <lane id=":1946581800_0_1" index="1" disallow="tram rail_urban rail rail_electric ship" speed="13.89" length="9.50" shape="2295.02,454.22 2304.48,455.11"/>
    </edge>
    <edge id=":1946581800_2" function="internal">
        <lane id=":1946581800_2_0" index="0" disallow="tram rail_urban rail rail_electric ship" speed="13.89" length="1.52" shape="2297.82,457.60 2298.17,456.12"/>
    </edge>
    <edge id=":1946581800_3" function="internal">
        <lane id=":1946581800_3_0" index="0" disallow="tram rail_urban rail rail_electric ship" speed="13.89" length="1.54" shape="2301.10,457.91 2301.42,456.57 2301.52,456.44"/>
    </edge>
    <edge id=":1946581800_4" function="internal">
        <lane id=":1946581800_4_0" index="0" speed="13.89" length="8.80" shape="2298.17,456.12 2298.48,454.84 2299.86,452.97 2301.97,451.96 2304.79,451.82"/>
    </edge>
    <edge id=":1946581800_5" function="internal">
        <lane id=":1946581800_5_0" index="0" speed="13.89" length="3.46" shape="2301.52,456.44 2302.09,455.66 2303.11,455.17 2304.48,455.11"/>
    </edge>
    <edge id=":1946581808_0" function="internal">
        <lane id=":1946581808_0_0" index="0" disallow="tram rail_urban rail rail_electric ship" speed="13.89" length="0.30" shape="2292.21,516.45 2292.24,516.16"/>
        <lane id=":1946581808_0_1" index="1" disallow="tram rail_urban rail rail_electric ship" speed="13.89" length="0.30" shape="2295.50,516.77 2295.53,516.47"/>
    </edge>
    <edge id=":1946581810_0" function="internal">
        <lane id=":1946581810_0_0" index="0" disallow="tram rail_urban rail rail_electric ship" speed="13.89" length="0.29" shape="1955.33,529.74 1955.31,530.01"/>
        <lane id=":1946581810_0_1" index="1" disallow="tram rail_urban rail rail_electric ship" speed="13.89" length="0.29" shape="1952.03,529.51 1952.01,529.82"/>
    </edge>
    <edge id=":1946581818_0" function="internal">
        <lane id=":1946581818_0_0" index="0" disallow="tram rail_urban rail rail_electric ship" speed="13.89" length="0.28" shape="1953.80,555.50 1953.78,555.74"/>
        <lane id=":1946581818_0_1" index="1" disallow="tram rail_urban rail rail_electric ship" speed="13.89" length="0.28" shape="1950.50,555.30 1950.49,555.62"/>
    </edge>
    <edge id=":1946581820_0" function="internal">
        <lane id=":1946581820_0_0" index="0" disallow="tram rail_urban rail rail_electric ship" speed="13.89" length="0.10" shape="2287.47,566.27 2287.47,566.27"/>
        <lane id=":1946581820_0_1" index="1" disallow="tram rail_urban rail rail_electric ship" speed="13.89" length="0.10" shape="2290.75,566.59 2290.75,566.59"/>
    </edge>
    <edge id=":1946581823_0" function="internal">
        <lane id=":1946581823_0_0" index="0" disallow="tram rail_urban rail rail_electric ship" speed="13.89" length="0.27" shape="1952.97,577.50 1952.96,577.81"/>
        <lane id=":1946581823_0_1" index="1" disallow="tram rail_urban rail rail_electric ship" speed="13.89" length="0.27" shape="1949.68,577.38 1949.66,577.60"/>
    </edge>
    <edge id=":1946581830_0" function="internal">
        <lane id=":1946581830_0_0" index="0" disallow="tram rail_urban rail rail_electric ship" speed="13.89" length="0.29" shape="1951.14,606.69 1951.12,606.96"/>
        <lane id=":1946581830_0_1" index="1" disallow="tram rail_urban rail rail_electric ship" speed="13.89" length="0.29" shape="1947.84,606.48 1947.82,606.79"/>
    </edge>
    <edge id=":1946581837_0" function="internal">
        <lane id=":1946581837_0_0" index="0" disallow="tram rail_urban rail rail_electric ship" speed="13.89" length="0.10" shape="2282.75,615.86 2282.75,615.86"/>
        <lane id=":1946581837_0_1" index="1" disallow="tram rail_urban rail rail_electric ship" speed="13.89" length="0.10" shape="2286.03,616.18 2286.03,616.18"/>
    </edge>
    <edge id=":1946581841_0" function="internal">
        <lane id=":1946581841_0_0" index="0" disallow="tram rail_urban rail rail_electric ship" speed="13.89" length="0.29" shape="1949.96,629.38 1949.94,629.70"/>
        <lane id=":1946581841_0_1" index="1" disallow="tram rail_urban rail rail_electric ship" speed="13.89" length="0.29" shape="1946.66,629.21 1946.64,629.47"/>
    </edge>
    <edge id=":1946581846_0" function="internal">
        <lane id=":1946581846_0_0" index="0" disallow="tram rail_urban rail rail_electric ship" speed="13.89" length="0.30" shape="2277.85,667.30 2277.88,667.00"/>
        <lane id=":1946581846_0_1" index="1" disallow="tram rail_urban rail rail_electric ship" speed="13.89" length="0.30" shape="2281.14,667.62 2281.17,667.32"/>
    </edge>
    <edge id=":1946581848_0" function="internal">
        <lane id=":1946581848_0_0" index="0" disallow="tram rail_urban rail rail_electric ship" speed="13.89" length="0.26" shape="1946.86,679.02 1946.84,679.23"/>
        <lane id=":1946581848_0_1" index="1" disallow="tram rail_urban rail rail_electric ship" speed="13.89" length="0.26" shape="1943.56,678.77 1943.55,679.07"/>
    </edge>
    <edge id=":1946581852_0" function="internal">
        <lane id=":1946581852_0_0" index="0" disallow="tram rail_urban rail rail_electric ship" speed="13.89" length="0.30" shape="2273.12,716.97 2273.15,716.67"/>
        <lane id=":1946581852_0_1" index="1" disallow="tram rail_urban rail rail_electric ship" speed="13.89" length="0.30" shape="2276.41,717.29 2276.44,716.99"/>
    </edge>
    <edge id=":1946581855_0" function="internal">
        <lane id=":1946581855_0_0" index="0" disallow="tram rail_urban rail rail_electric ship" speed="13.89" length="0.29" shape="1932.91,943.94 1932.89,944.25"/>
        <lane id=":1946581855_0_1" index="1" disallow="tram rail_urban rail rail_electric ship" speed="13.89" length="0.29" shape="1929.61,943.78 1929.59,944.06"/>
    </edge>
    <edge id=":1946581856_0" function="internal">
        <lane id=":1946581856_0_0" index="0" disallow="tram rail_urban rail rail_electric ship" speed="13.89" length="0.10" shape="2244.44,1018.27 2244.44,1018.27"/>
        <lane id=":1946581856_0_1" index="1" disallow="tram rail_urban rail rail_electric ship" speed="13.89" length="0.10" shape="2247.72,1018.59 2247.72,1018.59"/>
    </edge>
    <edge id=":1946581857_0" function="internal">
        <lane id=":1946581857_0_0" index="0" disallow="tram rail_urban rail rail_electric ship" speed="16.66" length="5.26" shape="1925.14,1098.44 1925.28,1099.90 1925.83,1100.98 1926.79,1101.68 1928.15,1102.00"/>
    </edge>
    <edge id=":1946581857_1" function="internal">
        <lane id=":1946581857_1_0" index="0" disallow="tram rail_urban rail rail_electric ship" speed="13.89" length="9.69" shape="1925.14,1098.44 1924.50,1108.21"/>
        <lane id=":1946581857_1_1" index="1" disallow="tram rail_urban rail rail_electric ship" speed="13.89" length="9.69" shape="1921.84,1098.32 1921.21,1107.89"/>
    </edge>
    <edge id=":1946581857_3" function="internal">
        <lane id=":1946581857_3_0" index="0" speed="13.89" length="7.95" shape="1921.84,1098.32 1921.53,1101.13 1920.84,1103.11 1919.78,1104.24 1918.33,1104.54"/>
    </edge>
    <edge id=":1946581857_4" function="internal">
        <lane id=":1946581857_4_0" index="0" disallow="tram rail_urban rail rail_electric ship" speed="16.66" length="10.31" shape="1918.57,1101.25 1921.42,1101.97 1923.20,1103.25 1924.99,1104.53 1927.87,1105.29"/>
    </edge>
    <edge id=":1946581857_5" function="internal">
        <lane id=":1946581857_5_0" index="0" disallow="tram rail_urban rail rail_electric ship" speed="13.89" length="7.94" shape="1918.57,1101.25 1919.96,1101.75 1920.86,1103.03 1921.28,1105.08 1921.21,1107.89"/>
    </edge>
    <edge id=":1946581858_0" function="internal">
        <lane id=":1946581858_0_0" index="0" disallow="tram rail_urban rail rail_electric ship" speed="16.66" length="5.46" shape="2229.51,1125.29 2230.99,1125.20 2232.10,1124.66 2232.86,1123.67 2233.26,1122.23"/>
    </edge>
    <edge id=":1946581858_1" function="internal">
        <lane id=":1946581858_1_0" index="0" disallow="tram rail_urban rail rail_electric ship" speed="19.44" length="9.82" shape="2229.51,1125.29 2239.29,1126.06"/>
        <lane id=":1946581858_1_1" index="1" disallow="tram rail_urban rail rail_electric ship" speed="19.44" length="9.82" shape="2229.25,1128.58 2239.03,1129.35"/>
    </edge>
    <edge id=":1946581858_3" function="internal">
        <lane id=":1946581858_3_0" index="0" disallow="tram rail_urban rail rail_electric ship" speed="13.89" length="9.82" shape="2232.02,1131.98 2233.26,1122.23"/>
        <lane id=":1946581858_3_1" index="1" disallow="tram rail_urban rail rail_electric ship" speed="13.89" length="9.82" shape="2235.29,1132.38 2236.53,1122.65"/>
    </edge>
    <edge id=":1946581858_5" function="internal">
        <lane id=":1946581858_5_0" index="0" disallow="tram rail_urban rail rail_electric ship" speed="16.66" length="5.44" shape="2235.29,1132.38 2235.68,1130.96 2236.43,1129.98 2237.55,1129.44 2239.03,1129.35"/>
    </edge>
    <edge id=":1946581860_0" function="internal">
        <lane id=":1946581860_0_0" index="0" disallow="tram rail_urban rail rail_electric ship" speed="13.89" length="5.02" shape="2469.99,1460.17 2470.04,1461.55 2470.52,1462.57 2471.43,1463.24 2472.78,1463.55"/>
    </edge>
    <edge id=":1946581860_1" function="internal">
        <lane id=":1946581860_1_0" index="0" disallow="tram rail_urban rail rail_electric ship" speed="13.89" length="9.52" shape="2469.99,1460.17 2468.98,1469.64"/>
        <lane id=":1946581860_1_1" index="1" disallow="tram rail_urban rail rail_electric ship" speed="13.89" length="9.52" shape="2466.71,1459.82 2465.70,1469.29"/>
    </edge>
    <edge id=":1946581860_3" function="internal">
        <lane id=":1946581860_3_0" index="0" disallow="tram rail_urban rail rail_electric ship" speed="13.89" length="9.60" shape="2463.28,1462.57 2472.78,1463.55"/>
        <lane id=":1946581860_3_1" index="1" disallow="tram rail_urban rail rail_electric ship" speed="13.89" length="9.60" shape="2462.89,1465.85 2472.49,1466.84"/>
    </edge>
    <edge id=":1946581860_5" function="internal">
        <lane id=":1946581860_5_0" index="0" disallow="tram rail_urban rail rail_electric ship" speed="13.89" length="1.61" shape="2462.89,1465.85 2464.24,1466.21 2464.41,1466.33"/>
    </edge>
    <edge id=":1946581860_6" function="internal">
        <lane id=":1946581860_6_0" index="0" speed="13.89" length="3.44" shape="2464.41,1466.33 2465.16,1466.90 2465.65,1467.92 2465.70,1469.29"/>
    </edge>
    <edge id=":1946581861_0" function="internal">
        <lane id=":1946581861_0_0" index="0" disallow="tram rail_urban rail rail_electric ship" speed="13.89" length="5.01" shape="2750.13,1485.33 2750.18,1486.71 2750.67,1487.73 2751.58,1488.40 2752.91,1488.72"/>
    </edge>
    <edge id=":1946581861_1" function="internal">
        <lane id=":1946581861_1_0" index="0" disallow="tram rail_urban rail rail_electric ship" speed="13.89" length="9.56" shape="2750.13,1485.33 2749.15,1494.84"/>
        <lane id=":1946581861_1_1" index="1" disallow="tram rail_urban rail rail_electric ship" speed="13.89" length="9.56" shape="2746.85,1484.99 2745.87,1494.50"/>
    </edge>
    <edge id=":1946581861_3" function="internal">
        <lane id=":1946581861_3_0" index="0" disallow="tram rail_urban rail rail_electric ship" speed="13.89" length="9.56" shape="2743.40,1487.82 2752.91,1488.72"/>
        <lane id=":1946581861_3_1" index="1" disallow="tram rail_urban rail rail_electric ship" speed="13.89" length="9.56" shape="2743.09,1491.11 2752.61,1492.01"/>
    </edge>
    <edge id=":1946581861_5" function="internal">
        <lane id=":1946581861_5_0" index="0" disallow="tram rail_urban rail rail_electric ship" speed="13.89" length="1.55" shape="2743.09,1491.11 2744.43,1491.43 2744.57,1491.54"/>
    </edge>
    <edge id=":1946581861_6" function="internal">
        <lane id=":1946581861_6_0" index="0" speed="13.89" length="3.46" shape="2744.57,1491.54 2745.33,1492.10 2745.82,1493.13 2745.87,1494.50"/>
    </edge>
    <edge id=":1946581864_0" function="internal">
        <lane id=":1946581864_0_0" index="0" disallow="tram rail_urban rail rail_electric ship" speed="13.89" length="0.30" shape="2740.88,1576.09 2740.85,1576.39"/>
        <lane id=":1946581864_0_1" index="1" disallow="tram rail_urban rail rail_electric ship" speed="13.89" length="0.30" shape="2737.59,1575.76 2737.56,1576.05"/>
    </edge>
    <edge id=":1946581866_0" function="internal">
        <lane id=":1946581866_0_0" index="0" disallow="tram rail_urban rail rail_electric ship" speed="13.89" length="0.30" shape="2453.78,1617.65 2453.75,1617.96"/>
        <lane id=":1946581866_0_1" index="1" disallow="tram rail_urban rail rail_electric ship" speed="13.89" length="0.30" shape="2450.49,1617.33 2450.46,1617.62"/>
    </edge>
    <edge id=":1946581869_0" function="internal">
        <lane id=":1946581869_0_0" index="0" disallow="tram rail_urban rail rail_electric ship" speed="13.89" length="0.30" shape="2732.34,1660.39 2732.31,1660.69"/>
        <lane id=":1946581869_0_1" index="1" disallow="tram rail_urban rail rail_electric ship" speed="13.89" length="0.30" shape="2729.05,1660.05 2729.02,1660.35"/>
    </edge>
    <edge id=":1946581870_0" function="internal">
        <lane id=":1946581870_0_0" index="0" disallow="tram rail_urban rail rail_electric ship" speed="13.89" length="0.30" shape="2176.69,1657.98 2176.72,1657.68"/>
        <lane id=":1946581870_0_1" index="1" disallow="tram rail_urban rail rail_electric ship" speed="13.89" length="0.30" shape="2179.98,1658.32 2180.01,1658.02"/>
    </edge>
    <edge id=":1946581872_0" function="internal">
        <lane id=":1946581872_0_0" index="0" disallow="tram rail_urban rail rail_electric ship" speed="13.89" length="0.10" shape="1894.93,1676.33 1894.93,1676.33"/>
        <lane id=":1946581872_0_1" index="1" disallow="tram rail_urban rail rail_electric ship" speed="13.89" length="0.10" shape="1891.63,1676.15 1891.63,1676.15"/>
    </edge>
    <edge id=":1946581873_0" function="internal">
        <lane id=":1946581873_0_0" index="0" disallow="tram rail_urban rail rail_electric ship" speed="13.89" length="0.10" shape="2441.65,1741.48 2441.65,1741.48"/>
        <lane id=":1946581873_0_1" index="1" disallow="tram rail_urban rail rail_electric ship" speed="13.89" length="0.10" shape="2438.37,1741.18 2438.37,1741.18"/>
    </edge>
    <edge id=":1946581874_0" function="internal">
        <lane id=":1946581874_0_0" index="0" speed="13.89" length="5.05" shape="1891.89,1769.77 1890.50,1769.84 1889.48,1770.34 1888.84,1771.27 1888.58,1772.64"/>
    </edge>
    <edge id=":1946581874_1" function="internal">
        <lane id=":1946581874_1_0" index="0" speed="13.89" length="9.59" shape="1889.32,1763.08 1888.58,1772.64"/>
    </edge>
    <edge id=":2029754659_0" function="internal">
        <lane id=":2029754659_0_0" index="0" disallow="tram rail_urban rail rail_electric ship" speed="13.89" length="0.30" shape="2502.66,1831.57 2502.36,1831.54"/>
        <lane id=":2029754659_0_1" index="1" disallow="tram rail_urban rail rail_electric ship" speed="13.89" length="0.30" shape="2503.00,1828.28 2502.70,1828.25"/>
    </edge>
    <edge id=":2029754712_0" function="internal">
        <lane id=":2029754712_0_0" index="0" disallow="tram rail_urban rail rail_electric ship" speed="13.89" length="0.30" shape="2595.70,1841.06 2595.40,1841.03"/>
        <lane id=":2029754712_0_1" index="1" disallow="tram rail_urban rail rail_electric ship" speed="13.89" length="0.30" shape="2596.04,1837.77 2595.74,1837.74"/>
    </edge>
    <edge id=":2029771554_0" function="internal">
        <lane id=":2029771554_0_0" index="0" disallow="tram rail_urban rail rail_electric ship" speed="13.89" length="0.30" shape="2788.95,1859.73 2788.65,1859.70"/>
        <lane id=":2029771554_0_1" index="1" disallow="tram rail_urban rail rail_electric ship" speed="13.89" length="0.30" shape="2789.22,1856.44 2788.94,1856.41"/>
    </edge>
    <edge id=":2030371737_0" function="internal">
        <lane id=":2030371737_0_0" index="0" disallow="tram rail_urban rail rail_electric ship" speed="13.89" length="0.30" shape="1990.89,1779.02 1990.59,1778.99"/>
        <lane id=":2030371737_0_1" index="1" disallow="tram rail_urban rail rail_electric ship" speed="13.89" length="0.30" shape="1991.19,1775.73 1990.89,1775.70"/>
    </edge>
    <edge id=":2030385873_0" function="internal">
        <lane id=":2030385873_0_0" index="0" disallow="tram rail_urban rail rail_electric ship" speed="13.89" length="0.10" shape="2388.04,1819.58 2388.04,1819.58"/>
        <lane id=":2030385873_0_1" index="1" disallow="tram rail_urban rail rail_electric ship" speed="13.89" length="0.10" shape="2388.40,1816.30 2388.40,1816.30"/>
    </edge>
    <edge id=":2030385876_0" function="internal">
        <lane id=":2030385876_0_0" index="0" disallow="tram rail_urban rail rail_electric ship" speed="13.89" length="0.10" shape="2244.82,1803.97 2244.82,1803.97"/>
        <lane id=":2030385876_0_1" index="1" disallow="tram rail_urban rail rail_electric ship" speed="13.89" length="0.10" shape="2245.18,1800.69 2245.18,1800.69"/>
    </edge>
    <edge id=":2030385879_0" function="internal">
        <lane id=":2030385879_0_0" index="0" disallow="tram rail_urban rail rail_electric ship" speed="13.89" length="0.30" shape="2222.54,1801.55 2222.24,1801.51"/>
        <lane id=":2030385879_0_1" index="1" disallow="tram rail_urban rail rail_electric ship" speed="13.89" length="0.30" shape="2222.90,1798.27 2222.60,1798.23"/>
    </edge>
    <edge id=":2030385908_0" function="internal">
        <lane id=":2030385908_0_0" index="0" disallow="tram rail_urban rail rail_electric ship" speed="13.89" length="0.10" shape="2343.00,1814.67 2343.00,1814.67"/>
        <lane id=":2030385908_0_1" index="1" disallow="tram rail_urban rail rail_electric ship" speed="13.89" length="0.10" shape="2343.36,1811.39 2343.36,1811.39"/>
    </edge>
    <edge id=":2030385910_0" function="internal">
        <lane id=":2030385910_0_0" index="0" disallow="tram rail_urban rail rail_electric ship" speed="13.89" length="0.10" shape="2270.50,1806.77 2270.50,1806.77"/>
        <lane id=":2030385910_0_1" index="1" disallow="tram rail_urban rail rail_electric ship" speed="13.89" length="0.10" shape="2270.86,1803.49 2270.86,1803.49"/>
    </edge>
    <edge id=":2030385914_0" function="internal">
        <lane id=":2030385914_0_0" index="0" disallow="tram rail_urban rail rail_electric ship" speed="13.89" length="0.30" shape="2202.40,1799.35 2202.10,1799.31"/>
        <lane id=":2030385914_0_1" index="1" disallow="tram rail_urban rail rail_electric ship" speed="13.89" length="0.30" shape="2202.76,1796.07 2202.46,1796.03"/>
    </edge>
    <edge id=":2030385923_0" function="internal">
        <lane id=":2030385923_0_0" index="0" disallow="tram rail_urban rail rail_electric ship" speed="13.89" length="0.10" shape="2411.76,1822.16 2411.76,1822.16"/>
        <lane id=":2030385923_0_1" index="1" disallow="tram rail_urban rail rail_electric ship" speed="13.89" length="0.10" shape="2412.12,1818.88 2412.12,1818.88"/>
    </edge>
    <edge id=":2030385928_0" function="internal">
        <lane id=":2030385928_0_0" index="0" disallow="tram rail_urban rail rail_electric ship" speed="13.89" length="0.10" shape="2182.09,1797.14 2182.09,1797.14"/>
        <lane id=":2030385928_0_1" index="1" disallow="tram rail_urban rail rail_electric ship" speed="13.89" length="0.10" shape="2182.45,1793.86 2182.45,1793.86"/>
    </edge>
    <edge id=":2030440094_0" function="internal">
        <lane id=":2030440094_0_0" index="0" disallow="tram rail_urban rail rail_electric ship" speed="13.89" length="0.10" shape="2719.83,1783.78 2719.83,1783.78"/>
        <lane id=":2030440094_0_1" index="1" disallow="tram rail_urban rail rail_electric ship" speed="13.89" length="0.10" shape="2716.55,1783.44 2716.55,1783.44"/>
    </edge>
    <edge id=":2030440111_0" function="internal">
        <lane id=":2030440111_0_0" index="0" disallow="tram rail_urban rail rail_electric ship" speed="13.89" length="0.30" shape="2716.53,1816.47 2716.50,1816.77"/>
        <lane id=":2030440111_0_1" index="1" disallow="tram rail_urban rail rail_electric ship" speed="13.89" length="0.30" shape="2713.24,1816.14 2713.21,1816.43"/>
    </edge>
    <edge id=":2030440128_0" function="internal">